deliverables/chatgpt_bundle_20261005/06_codesign_campaigns_reports_AtoQ/reports/nonlinear_codesign_20261001/full_gfl_sector_contract/closure_witnesses.csv
donor_bus,receiver_bus,local_storage,one_donor_exact_slice_gain,witness_voltage_norm_pu,receiver_input_radius_pu,witness_input_usage,delta,omega,xi,chi,gamma_q,gamma_d,i_d,i_q,v_dc_i,v_dc,predicted_delta_ur,predicted_delta_ui
30,30,0.9980010000000002,4.539010043015719,0.003455644969134071,0.0007620833706966305,4.534471032972705,0.0,-0.0004888120597235923,6.607429493304773e-05,0.0001905672836718255,4.33574412673998e-06,1.9328465587755095e-05,0.09940873770147203,-0.0031047515159909706,-0.005964463164622525,0.00042672469117960846,0.0012880498261022932,0.0032066196840566338
30,31,0.9980010000000004,1.4793823298300715,0.0010188687645536574,0.0006894016730103927,1.4779029475002419,0.0,0.0004888120597234915,-6.607429493304814e-05,-0.00019056728367182536,-4.335744126739924e-06,-1.9328465587755095e-05,-0.09940873770147203,0.003104751515991046,0.005964463164622525,-0.00042672469117960846,-0.0008801613795891949,-0.0005132343570560539
30,32,0.9980010000000001,1.4813289473621456,0.0010251368879688845,0.0006927313834292032,1.4798476184147833,0.0,0.0004888120597236385,-6.607429493304749e-05,-0.00019056728367182558,-4.3357441267400044e-06,-1.9328465587755085e-05,-0.09940873770147202,0.003104751515990937,0.005964463164622524,-0.0004267246911796084,-0.0008833528712761427,-0.0005201858743590831
30,33,0.9980010000000004,1.3222078593948008,0.0010056553622516244,0.0007613492970285838,1.3208856515354062,0.0,0.0004888120597238238,-6.607429493304671e-05,-0.00019056728367182585,-4.335744126740103e-06,-1.932846558775508e-05,-0.09940873770147203,0.003104751515990799,0.005964463164622524,-0.00042672469117960857,-0.0009327329533996478,-0.00037596801096345477
30,34,0.9980010000000002,1.206499690153892,0.000978774804040088,0.0008120636636663506,1.2052931904637383,0.0,0.0004888120597237462,-6.607429493304704e-05,-0.00019056728367182577,-4.335744126740066e-06,-1.9328465587755085e-05,-0.09940873770147203,0.003104751515990849,0.005964463164622525,-0.0004267246911796084,-0.0009352588239027045,-0.00028860188727006345
30,35,0.9980009999999998,1.4466448290996738,0.001079337278196409,0.000746843782357211,1.445198184270574,0.0,0.0004888120597238604,-6.607429493304654e-05,-0.00019056728367182596,-4.335744126740127e-06,-1.932846558775508e-05,-0.09940873770147202,0.0031047515159907616,0.005964463164622524,-0.00042672469117960846,-0.0009874855860408,-0.0004357076743254472
30,36,0.998001,1.2326349449963871,0.0010452151585948735,0.000848800712864712,1.2314023100513907,0.0,0.0004888120597238481,-6.607429493304659e-05,-0.0001905672836718259,-4.335744126740122e-06,-1.932846558775508e-05,-0.09940873770147202,0.003104751515990774,0.005964463164622525,-0.0004267246911796084,-0.0009592647955411803,-0.00041507322220524435
30,37,0.9980009999999999,2.399485865025034,0.0017845792323557391,0.0007444784834917355,2.3970863791600094,0.0,-0.0004888120597236066,6.607429493304767e-05,0.00019056728367182552,4.3357441267399875e-06,1.932846558775509e-05,0.09940873770147202,-0.003104751515990958,-0.005964463164622524,0.00042672469117960846,0.0010624121030866959,0.0014338771076247445
30,38,0.9980010000000002,1.566221997263022,0.0013772218912668978,0.0008802075913681236,1.564655775265759,0.0,0.0004888120597235716,-6.607429493304785e-05,-0.00019056728367182547,-4.3357441267399655e-06,-1.9328465587755095e-05,-0.09940873770147203,0.003104751515990991,0.005964463164622524,-0.00042672469117960846,-0.0011582366823330186,-0.0007451361791531619
30,39,0.9980009999999996,0.9403246229788447,0.0006470609137671334,0.0006888138484959095,0.9393842983558656,0.0,-0.000488812059723631,6.607429493304758e-05,0.0001905672836718255,4.335744126739994e-06,1.9328465587755085e-05,0.09940873770147199,-0.0031047515159909494,-0.005964463164622524,0.0004267246911796083,0.0004559076667312703,0.00045916884208404933
31,30,0.9980009999999999,1.3412979965769023,0.0010211587174416236,0.0007620833706966305,1.3399566985803257,0.0,0.0010308252866325443,3.338582257613709e-05,-0.0002451305059573333,-5.7484802681965075e-06,-2.339143205112307e-05,-0.09908402771469965,0.002051501794370378,0.0064704585216282615,-0.000486676704674566,-0.0008447425932235256,-0.0005737378124204598
31,31,0.9980009999999998,5.737398622048621,0.003951416836559074,0.0006894016730103927,5.731661223426573,0.0,-0.001030825286632448,-3.338582257613664e-05,0.0002451305059573331,5.748480268196452e-06,2.339143205112308e-05,0.09908402771469965,-0.002051501794370459,-0.0064704585216282615,0.000486676704674566,0.0010580917970443582,0.0038071165946513847
31,32,0.9980009999999996,2.3420203556514805,0.0016207686099888147,0.0006927313834292032,2.339678335295829,0.0,-0.0010308252866324706,-3.338582257613672e-05,0.0002451305059573332,5.748480268196466e-06,2.3391432051123072e-05,0.09908402771469965,-0.0020515017943704395,-0.0064704585216282615,0.000486676704674566,0.0009678838118475572,0.0013000353125544387
31,33,0.9980009999999998,1.2418710241289055,0.0009445521335894888,0.0007613492970285838,1.2406291531047764,0.0,0.0010308252866326737,3.3385822576137704e-05,-0.00024513050595733357,-5.748480268196585e-06,-2.3391432051123065e-05,-0.09908402771469965,0.0020515017943702773,0.0064704585216282615,-0.0004866767046745659,-0.0008640819459057752,-0.00038149852401830425
31,34,0.9980010000000005,1.1331932382465406,0.0009193048276397293,0.0008120636636663506,1.1320600450082945,0.0,0.0010308252866326427,3.338582257613756e-05,-0.00024513050595733346,-5.748480268196568e-06,-2.339143205112307e-05,-0.09908402771469968,0.0020515017943703003,0.006470458521628263,-0.00048667670467456605,-0.0008691283871293084,-0.0002995617011697583
31,35,0.9980009999999998,1.358747251954099,0.0010137571649799487,0.000746843782357211,1.3573885047021448,0.0,0.0010308252866327223,3.338582257613792e-05,-0.0002451305059573336,-5.748480268196618e-06,-2.3391432051123055e-05,-0.09908402771469965,0.002051501794370238,0.0064704585216282615,-0.000486676704674566,-0.0009136511589580326,-0.00043925522112187433
31,36,0.9980009999999999,1.157740525170077,0.0009817082920936505,0.000848800712864712,1.1565827846449068,0.0,0.0010308252866327347,3.338582257613801e-05,-0.0002451305059573337,-5.74848026819662e-06,-2.3391432051123062e-05,-0.09908402771469965,0.0020515017943702283,0.006470458521628263,-0.00048667670467456605,-0.0008877910064266881,-0.0004190206434930389
31,37,0.9980009999999996,1.326817318562105,0.0009867991582484929,0.0007444784834917355,1.3254905012435425,0.0,0.0010308252866325404,3.3385822576137027e-05,-0.00024513050595733325,-5.748480268196498e-06,-2.3391432051123065e-05,-0.09908402771469964,0.002051501794370384,0.006470458521628259,-0.0004866767046745659,-0.0008391939328801358,-0.000519159052446458
31,38,0.9980010000000001,1.0822142184854586,0.0009516205974268244,0.0008802075913681236,1.0811320042669732,0.0,0.0010308252866325597,3.338582257613714e-05,-0.0002451305059573333,-5.7484802681965134e-06,-2.3391432051123065e-05,-0.09908402771469965,0.0020515017943703744,0.0064704585216282615,-0.00048667670467456605,-0.0009042518821852995,-0.00029649670320482373
31,39,0.9980009999999998,0.8951127231064948,0.0006159494736009976,0.0006888138484959095,0.8942176103833884,0.0,-0.0010308252866324489,-3.338582257613663e-05,0.00024513050595733303,5.748480268196446e-06,2.3391432051123075e-05,0.09908402771469965,-0.002051501794370464,-0.0064704585216282615,0.000486676704674566,0.0004273324325724247,0.0004435997589055703
32,30,0.9980010000000004,1.298874774041443,0.000988861015048413,0.0007620833706966305,1.2975758992674018,0.0,0.0011099001676957855,2.231016997811637e-05,-0.00023248646505128525,-5.9118152310759456e-06,-2.3182754945911544e-05,-0.09914754078987546,0.0018663752162923588,0.006071528741690238,-0.0004892854168302663,-0.0007886344739506357,-0.0005965750360006543
32,31,0.9980010000000005,2.264965489341475,0.001559909526665153,0.0006894016730103927,2.262700523852134,0.0,-0.0011099001676956597,-2.2310169978115782e-05,0.00023248646505128503,5.911815231075867e-06,2.318275494591155e-05,0.09914754078987546,-0.0018663752162924531,-0.006071528741690237,0.0004892854168302663,0.0008720925382796352,0.0012933570025548571
32,32,0.9980010000000005,5.089106567241431,0.0035218584489110556,0.0006927313834292032,5.084017460674189,0.0,-0.00110990016769571,-2.2310169978116026e-05,0.00023248646505128506,5.911815231075901e-06,2.318275494591155e-05,0.09914754078987545,-0.0018663752162924139,-0.006071528741690238,0.0004892854168302663,0.0008419502532720436,0.0034197378123448775
32,33,0.9980009999999998,1.253897556505358,0.0009536993691680217,0.0007613492970285838,1.252643658948852,0.0,0.001109900167695903,2.2310169978116948e-05,-0.00023248646505128536,-5.911815231076022e-06,-2.318275494591153e-05,-0.09914754078987542,0.0018663752162922512,0.006071528741690237,-0.0004892854168302662,-0.0008337632722995184,-0.00046301327466486493
32,34,0.9980010000000002,1.1441673127709933,0.0009282075631562399,0.0008120636636663506,1.143023145458222,0.0,0.001109900167695905,2.231016997811697e-05,-0.00023248646505128547,-5.9118152310760176e-06,-2.3182754945911533e-05,-0.09914754078987545,0.0018663752162922547,0.0060715287416902375,-0.0004892854168302663,-0.0008463684083748256,-0.00038109027487658276
32,35,0.9980010000000004,1.3719056375670526,0.0010235745962023609,0.000746843782357211,1.3705337319294857,0.0,0.0011099001676959947,2.231016997811739e-05,-0.00023248646505128563,-5.911815231076076e-06,-2.3182754945911533e-05,-0.09914754078987546,0.0018663752162921808,0.006071528741690238,-0.0004892854168302663,-0.000878296189674802,-0.0005256431842928724
32,36,0.998001000000001,1.168952320629477,0.0009912153554921044,0.000848800712864712,1.1677833683088477,0.0,0.0011099001676959785,2.2310169978117287e-05,-0.00023248646505128558,-5.9118152310760565e-06,-2.3182754945911537e-05,-0.09914754078987549,0.0018663752162921992,0.006071528741690239,-0.0004892854168302663,-0.0008541538114861959,-0.0005029206172816374
32,37,0.9980010000000004,1.292633480313032,0.0009613754753209561,0.0007444784834917355,1.291340846832719,0.0,0.001109900167695812,2.2310169978116494e-05,-0.00023248646505128525,-5.911815231075962e-06,-2.318275494591154e-05,-0.09914754078987545,0.0018663752162923293,0.006071528741690237,-0.0004892854168302662,-0.0007904830856104778,-0.0005471556413967895
32,38,0.9980010000000004,1.0673519706093935,0.0009385518158849223,0.0008802075913681236,1.066284618638784,0.0,0.0011099001676958124,2.2310169978116487e-05,-0.00023248646505128528,-5.911815231075964e-06,-2.318275494591154e-05,-0.09914754078987546,0.00186637521629233,0.0060715287416902375,-0.0004892854168302663,-0.0008711180932350934,-0.00034933190340897895
32,39,0.998001,0.8012474560030373,0.000551358433423242,0.0006888138484959095,0.8004462085470342,0.0,-0.0011099001676956879,-2.231016997811594e-05,0.00023248646505128506,5.911815231075895e-06,2.3182754945911547e-05,0.09914754078987545,-0.0018663752162924267,-0.0060715287416902375,0.0004892854168302662,0.0003822726260090896,0.0003973207287709092
33,30,0.9980009999999997,1.286292529653421,0.0009792818845534743,0.0007620833706966305,1.2850062371237674,0.0,0.0008667774183929712,-5.934255949387917e-05,-0.0001495801185952298,-4.602570743556976e-06,-1.840938117972972e-05,-0.09939508435366018,0.002787085644524323,0.005249869267182779,-0.0004290646127017854,-0.000850932376116884,-0.00048467215794872946
33,31,0.998001,1.3325136246269795,0.0009177184850048552,0.0006894016730103927,1.3311811110023526,0.0,0.0008667774183928474,-5.934255949387961e-05,-0.0001495801185952296,-4.6025707435569225e-06,-1.8409381179729727e-05,-0.09939508435366019,0.0027870856445244134,0.00524986926718278,-0.0004290646127017854,-0.0008133118214453907,-0.000425124803812701
33,32,0.9980010000000002,1.3911895171712882,0.0009627569182034298,0.0006927313834292032,1.3897983276541173,0.0,0.0008667774183929354,-5.934255949387929e-05,-0.0001495801185952297,-4.602570743556961e-06,-1.8409381179729724e-05,-0.0993950843536602,0.0027870856445243505,0.005249869267182779,-0.0004290646127017854,-0.0008325706844916995,-0.0004834531403079191
33,33,0.9980009999999997,4.70098465111805,0.0035755122681114184,0.0007613492970285838,4.696283666466932,0.0,-0.0008667774183928391,5.9342559493879675e-05,0.0001495801185952296,4.602570743556915e-06,1.8409381179729724e-05,0.09939508435366018,-0.0027870856445244142,-0.005249869267182779,0.00042906461270178535,0.0012216487207102555,0.003360336647212933
33,34,0.9980009999999998,2.9394067431914284,0.002384598423472725,0.0008120636636663506,2.9364673364482363,0.0,-0.0008667774183928531,5.934255949387966e-05,0.00014958011859522954,4.602570743556917e-06,1.8409381179729724e-05,0.09939508435366018,-0.0027870856445244142,-0.0052498692671827775,0.00042906461270178535,0.0013553392692473812,0.0019619798945107927
33,35,0.9980009999999998,1.9463470784301622,0.0014521635966208547,0.000746843782357211,1.944400731351732,0.0,0.0008667774183930824,-5.9342559493878685e-05,-0.00014958011859522995,-4.60257074355704e-06,-1.8409381179729714e-05,-0.09939508435366019,0.002787085644524238,0.005249869267182779,-0.0004290646127017854,-0.001111592697344997,-0.0009344200268402269
33,36,0.998000999999999,1.6584135758171923,0.00140625496275277,0.000848800712864712,1.6567551622413743,0.0,0.0008667774183930848,-5.934255949387865e-05,-0.00014958011859522995,-4.602570743557043e-06,-1.8409381179729714e-05,-0.09939508435366017,0.0027870856445242377,0.0052498692671827775,-0.00042906461270178535,-0.0010829043696857722,-0.0008971461120588191
33,37,0.9980009999999997,1.3509575254670207,0.0010047530510116137,0.0007444784834917355,1.3496065679415536,0.0,0.0008667774183929828,-5.934255949387912e-05,-0.00014958011859522976,-4.602570743556987e-06,-1.840938117972972e-05,-0.09939508435366018,0.0027870856445243123,0.0052498692671827775,-0.00042906461270178535,-0.0008894959379422509,-0.00046725332519028875
33,38,0.9980009999999989,1.2330617831589097,0.0010842649918202242,0.0008802075913681236,1.23182872137575,0.0,0.0008667774183929097,-5.93425594938794e-05,-0.00014958011859522963,-4.602570743556947e-06,-1.8409381179729717e-05,-0.09939508435366017,0.002787085644524368,0.005249869267182777,-0.00042906461270178535,-0.0010113745085265468,-0.00039083522869567006
33,39,0.9980009999999996,0.6079577780766815,0.000418350967103181,0.0006888138484959095,0.6073498202986047,0.0,0.0008667774183928942,-5.934255949387946e-05,-0.00014958011859522965,-4.6025707435569445e-06,-1.840938117972972e-05,-0.09939508435366019,0.002787085644524378,0.005249869267182779,-0.00042906461270178535,-0.00037306057856053383,-0.0001893233646443212
34,30,0.998001,1.2983860458547496,0.000988488935876167,0.0007620833706966305,1.297087659808895,0.0,-0.00041404044742044625,-0.0001887469273376233,-0.0002649570462415818,-3.081975145272265e-06,-1.3623301869882012e-05,-0.09956351114824855,0.003967933706591104,0.004677494282920219,-0.0003568654099153924,-0.0009087940186072144,-0.00038884933855331047
34,31,0.9980009999999995,1.3450417041550942,0.0009263467271121581,0.0006894016730103927,1.3436966624509388,0.0,-0.0004140404474205353,-0.00018874692733762357,-0.0002649570462415816,-3.0819751452722214e-06,-1.3623301869882015e-05,-0.09956351114824853,0.003967933706591168,0.004677494282920218,-0.00035686540991539226,-0.0008642594843358703,-0.0003334273572562738
34,32,0.9980010000000001,1.4042692580367375,0.0009718086044410631,0.0006927313834292032,1.4028649887787008,0.0,-0.00041404044742049287,-0.00018874692733762352,-0.00026495704624158176,-3.0819751452722345e-06,-1.3623301869882013e-05,-0.09956351114824855,0.003967933706591142,0.004677494282920219,-0.00035686540991539226,-0.0008902395413018221,-0.0003897249321873161
34,33,0.9980009999999998,3.251593881770861,0.00247312311739258,0.0007613492970285838,3.2483422878890895,0.0,0.00041404044742054095,0.00018874692733762365,0.0002649570462415817,3.081975145272218e-06,1.3623301869882017e-05,0.09956351114824853,-0.0039679337065911735,-0.004677494282920218,0.0003568654099153923,0.0014652525294071405,0.0019923285318560213
34,34,0.9980009999999997,6.08655593837821,0.004937728243515163,0.0008120636636663506,6.080469382439833,0.0,0.00041404044742065496,0.0001887469273376241,0.0002649570462415815,3.0819751452721557e-06,1.3623301869882017e-05,0.09956351114824852,-0.003967933706591258,-0.004677494282920218,0.0003568654099153923,0.0017722319828202009,0.004608725854927423
34,35,0.9980009999999999,1.9646463217078518,0.0014658166060085756,0.000746843782357211,1.962681675386144,0.0,-0.00041404044742030254,-0.00018874692733762276,-0.00026495704624158214,-3.0819751452723383e-06,-1.362330186988201e-05,-0.09956351114824856,0.003967933706590993,0.004677494282920221,-0.0003568654099153924,-0.00122160568501757,-0.0008101221344854451
34,36,0.9980009999999997,1.6740057144522908,0.001419476346522939,0.000848800712864712,1.6723317087378384,0.0,-0.00041404044742025315,-0.0001887469273376226,-0.00026495704624158225,-3.0819751452723637e-06,-1.3623301869882008e-05,-0.09956351114824855,0.00396793370659095,0.004677494282920219,-0.0003568654099153924,-0.0011885745505892547,-0.0007760178065158442
34,37,0.9980009999999998,1.3636590115947091,0.001014199578158916,0.0007444784834917355,1.3622953525831143,0.0,-0.000414040447420426,-0.00018874692733762322,-0.00026495704624158187,-3.081975145272273e-06,-1.3623301869882013e-05,-0.09956351114824855,0.003967933706591084,0.004677494282920218,-0.00035686540991539226,-0.0009454794985289584,-0.0003669731627778149
34,38,0.9980010000000001,1.2446548324133342,0.0010944590774911132,0.0008802075913681236,1.243410177580921,0.0,-0.0004140404474204546,-0.00018874692733762338,-0.00026495704624158187,-3.0819751452722616e-06,-1.3623301869882015e-05,-0.09956351114824856,0.003967933706591109,0.004677494282920219,-0.0003568654099153924,-0.0010589809407247435,-0.00027640557064653406
34,39,0.9980009999999998,0.6136736996648097,0.0004222842358440535,0.0006888138484959095,0.6130600259651446,0.0,-0.0004140404474204679,-0.00018874692733762336,-0.0002649570462415817,-3.0819751452722506e-06,-1.3623301869882015e-05,-0.09956351114824853,0.00396793370659112,0.004677494282920218,-0.00035686540991539226,-0.00039578105240613813,-0.000147245829817642
35,30,0.998001,1.4049764483307878,0.001069638478305814,0.0007620833706966305,1.4035714718824572,0.0,0.0007880923430879767,-7.448967068335587e-05,-0.00023582307554767683,-5.207013915537471e-06,-2.0427584616823518e-05,-0.09930647744364464,0.0022751046865120035,0.005611477665636509,-0.0004501198144626914,-0.0008945340158388907,-0.0005864600316982601
35,31,0.9980009999999996,1.4554622813406457,0.0010023947336280043,0.0006894016730103927,1.454006819059305,0.0,0.0007880923430878042,-7.448967068335659e-05,-0.00023582307554767654,-5.207013915537381e-06,-2.0427584616823528e-05,-0.09930647744364463,0.002275104686512138,0.005611477665636509,-0.00045011981446269137,-0.0008575886725794117,-0.0005189767534954142
35,32,0.998001,1.5195520938903264,0.0010515887827691952,0.0006927313834292032,1.5180325417964364,0.0,0.0007880923430879453,-7.448967068335596e-05,-0.0002358230755476768,-5.207013915537457e-06,-2.042758461682352e-05,-0.09930647744364464,0.0022751046865120226,0.0056114776656365105,-0.00045011981446269154,-0.0008746005884727699,-0.0005838773661387142
35,33,0.998001,1.9430653160746179,0.0014778720610615598,0.0007613492970285838,1.9411222507585437,0.0,0.0007880923430879825,-7.448967068335583e-05,-0.00023582307554767691,-5.207013915537479e-06,-2.042758461682352e-05,-0.09930647744364465,0.002275104686512,0.005611477665636511,-0.00045011981446269154,-0.0011020619273620841,-0.0009846650888120849
35,34,0.9980009999999992,1.773025084623105,0.0014383694367453889,0.0008120636636663506,1.7712520595384822,0.0,0.0007880923430880065,-7.44896706833557e-05,-0.00023582307554767691,-5.207013915537494e-06,-2.0427584616823518e-05,-0.09930647744364463,0.002275104686511977,0.0056114776656365105,-0.0004501198144626914,-0.0011491002356853555,-0.0008651446612625589
35,35,0.9980009999999997,5.2237976688350205,0.003897459448452267,0.000746843782357211,5.2185738711661855,0.0,-0.0007880923430878743,7.44896706833563e-05,0.00023582307554767667,5.207013915537416e-06,2.0427584616823524e-05,0.09930647744364463,-0.0022751046865120846,-0.005611477665636509,0.0004501198144626914,0.001071989971898232,0.003747135926608411
35,36,0.9980009999999999,2.8399350761398368,0.002408128378199876,0.000848800712864712,2.8370951410636964,0.0,-0.0007880923430879336,7.448967068335602e-05,0.0002358230755476768,5.207013915537453e-06,2.042758461682352e-05,0.09930647744364463,-0.0022751046865120365,-0.0056114776656365105,0.00045011981446269154,0.0011503413205714431,0.0021156079816633125
35,37,0.9980009999999996,1.4756079680318281,0.001097459823886388,0.0007444784834917355,1.474132360063796,0.0,0.0007880923430879701,-7.448967068335587e-05,-0.0002358230755476768,-5.207013915537472e-06,-2.042758461682352e-05,-0.09930647744364463,0.002275104686512011,0.00561147766563651,-0.0004501198144626914,-0.0009377627772845266,-0.0005701044102481166
35,38,0.9980009999999997,1.3468341957500263,0.001184308189729941,0.0008802075913681236,1.3454873615542762,0.0,0.0007880923430879203,-7.448967068335609e-05,-0.00023582307554767675,-5.2070139155374425e-06,-2.0427584616823524e-05,-0.09930647744364463,0.0022751046865120495,0.00561147766563651,-0.0004501198144626914,-0.001075844477811683,-0.0004951207406517293
35,39,0.9980009999999991,0.6640529584723623,0.00045695146505651173,0.0006888138484959095,0.6633889055138898,0.0,0.0007880923430879062,-7.448967068335615e-05,-0.00023582307554767667,-5.207013915537435e-06,-2.0427584616823518e-05,-0.09930647744364461,0.002275104686512063,0.005611477665636508,-0.00045011981446269137,-0.00039375780657845057,-0.00023186080129211138
36,30,0.998001,1.28840013158577,0.0009808864467697812,0.0007620833706966305,1.2871117314541844,0.0,0.00093388710117055,-0.00014226213556492784,-0.0001610865832606732,-4.446604355198255e-06,-1.8981962294529715e-05,-0.09934064077539431,0.0027871171634736443,0.005758358334760988,-0.0004129037561675308,-0.0008011627846664805,-0.0005659296899104139
36,31,0.9980009999999999,1.334696960241081,0.0009192221750347348,0.0006894016730103927,1.33336226328084,0.0,0.0009338871011703564,-0.00014226213556492857,-0.0001610865832606729,-4.446604355198161e-06,-1.8981962294529715e-05,-0.09934064077539431,0.0027871171634737905,0.005758358334760988,-0.00041290375616753094,-0.0007694498960858267,-0.0005029078091351328
36,32,0.9980009999999999,1.3934689937654998,0.0009643344041130578,0.0006927313834292032,1.3920755247717345,0.0,0.0009338871011705129,-0.00014226213556492792,-0.00016108658326067309,-4.446604355198228e-06,-1.8981962294529712e-05,-0.09934064077539431,0.0027871171634736803,0.005758358334760989,-0.00041290375616753094,-0.0007829764625742025,-0.0005629286828816547
36,33,0.9980009999999999,1.781841689862172,0.001355247314074796,0.0007613492970285838,1.7800598481723102,0.0,0.0009338871011705571,-0.00014226213556492773,-0.0001610865832606732,-4.4466043551982546e-06,-1.8981962294529715e-05,-0.09934064077539431,0.0027871171634736404,0.005758358334760988,-0.00041290375616753094,-0.0009786903162703343,-0.0009374756248274523
36,34,0.9980009999999999,1.6259103524811886,0.0013190223749112925,0.0008120636636663506,1.6242844421287073,0.0,0.0009338871011705729,-0.0001422621355649277,-0.0001610865832606732,-4.446604355198261e-06,-1.898196229452971e-05,-0.0993406407753943,0.0027871171634736287,0.005758358334760987,-0.00041290375616753094,-0.0010256015303405747,-0.0008294344618351095
36,35,0.9980009999999999,3.0564519402209616,0.002280409435500032,0.000746843782357211,3.0533954882807413,0.0,-0.0009338871011705278,0.0001422621355649279,0.00016108658326067317,4.446604355198246e-06,1.8981962294529715e-05,0.09934064077539431,-0.002787117163473662,-0.005758358334760989,0.00041290375616753094,0.0010045461513980296,0.002047230867105364
36,36,0.9980009999999996,5.411542741721251,0.004588728015533984,0.000848800712864712,5.406131198979529,0.0,-0.0009338871011704035,0.00014226213556492836,0.0001610865832606729,4.446604355198182e-06,1.898196229452972e-05,0.09934064077539428,-0.0027871171634737575,-0.005758358334760988,0.0004129037561675308,0.0007509647485452866,0.004526861688519848
36,37,0.9980009999999998,1.3531710815793014,0.0010063993479643108,0.0007444784834917355,1.3518179104977222,0.0,0.0009338871011705278,-0.0001422621355649279,-0.0001610865832606731,-4.446604355198242e-06,-1.8981962294529715e-05,-0.0993406407753943,0.0027871171634736664,0.005758358334760988,-0.0004129037561675308,-0.0008413010878015238,-0.0005523152426350034
36,38,0.998001,1.2350821660321514,0.00108604156980638,0.0008802075913681236,1.2338470838661193,0.0,0.0009338871011704601,-0.0001422621355649282,-0.00016108658326067303,-4.4466043551982105e-06,-1.898196229452972e-05,-0.09934064077539431,0.0027871171634737137,0.005758358334760988,-0.00041290375616753094,-0.0009702345654638932,-0.00048798686388733546
36,39,0.9980009999999997,0.6089539223893644,0.0004190364389428598,0.0006888138484959095,0.6083449684669751,0.0,0.0009338871011704852,-0.00014226213556492806,-0.00016108658326067309,-4.446604355198224e-06,-1.898196229452972e-05,-0.0993406407753943,0.0027871171634736955,0.005758358334760988,-0.00041290375616753094,-0.0003534936719029592,-0.00022501946823880837
37,30,0.9980009999999999,2.3371822085087515,0.0017793465676971523,0.0007620833706966305,2.3348450263002434,0.0,-0.0008738662293801975,-4.25705074891115e-06,3.1436483424291976e-06,3.8140863679841433e-06,1.7346006285424587e-05,0.09945007670962401,-0.0035568524698150646,-0.005436788754938721,0.00040694778030495656,0.0009175073490927294,0.0015245505804454206
37,31,0.9980009999999996,1.4254128134529862,0.0009816992963466145,0.0006894016730103927,1.4239874006395332,0.0,0.0008738662293800942,4.257050748910752e-06,-3.1436483424290485e-06,-3.814086367984089e-06,-1.734600628542459e-05,-0.09945007670962398,0.003556852469815143,0.005436788754938721,-0.00040694778030495645,-0.0008204973530117169,-0.0005389968479946835
37,32,0.9980009999999999,1.4359324282036836,0.0009937207420428924,0.0006927313834292032,1.43449649577548,0.0,0.0008738662293801807,4.257050748911154e-06,-3.1436483424291896e-06,-3.81408636798414e-06,-1.7346006285424587e-05,-0.099450076709624,0.0035568524698150698,0.005436788754938722,-0.00040694778030495667,-0.0008279558517759116,-0.0005495179894018951
37,33,0.9980009999999998,1.3526207875586889,0.001028787068868303,0.0007613492970285838,1.35126816677113,0.0,0.0008738662293803498,4.257050748911872e-06,-3.143648342429459e-06,-3.8140863679842305e-06,-1.7346006285424573e-05,-0.099450076709624,0.0035568524698149427,0.005436788754938721,-0.00040694778030495645,-0.0009285891128563559,-0.00044286012752931377
37,34,0.9980009999999997,1.2342511425035991,0.001001288214161186,0.0008120636636663506,1.2330168913610957,0.0,0.0008738662293803639,4.2570507489119605e-06,-3.143648342429479e-06,-3.8140863679842386e-06,-1.7346006285424583e-05,-0.09945007670962401,0.0035568524698149253,0.0054367887549387215,-0.00040694778030495656,-0.000936692580866692,-0.000353815060119539
37,35,0.9980009999999998,1.4799200096648584,0.0011041637885466186,0.000746843782357211,1.4784400896551932,0.0,0.0008738662293804383,4.2570507489122764e-06,-3.1436483424295754e-06,-3.8140863679842805e-06,-1.7346006285424576e-05,-0.099450076709624,0.003556852469814872,0.005436788754938721,-0.00040694778030495667,-0.000980716511375529,-0.0005073192251955706
37,36,0.9980009999999995,1.2609875506537396,0.0010692568047765128,0.000848800712864712,1.2597265631030858,0.0,0.0008738662293804012,4.2570507489121096e-06,-3.143648342429524e-06,-3.8140863679842606e-06,-1.7346006285424576e-05,-0.09945007670962398,0.003556852469814898,0.005436788754938721,-0.00040694778030495667,-0.0009532065829893383,-0.00048446602017754265
37,37,0.998001,5.73541286911708,0.004265621583524268,0.0007444784834917355,5.729677456247963,0.0,-0.0008738662293801405,-4.257050748910943e-06,3.1436483424291095e-06,3.814086367984113e-06,1.734600628542459e-05,0.099450076709624,-0.0035568524698151092,-0.0054367887549387215,0.00040694778030495667,0.0013543189396937243,0.004044916278912946
37,38,0.9980009999999994,1.8951011246285865,0.001666414313912042,0.0008802075913681236,1.8932060235039578,0.0,0.0008738662293801276,4.257050748910835e-06,-3.1436483424290905e-06,-3.814086367984102e-06,-1.7346006285424587e-05,-0.09945007670962398,0.0035568524698151188,0.005436788754938721,-0.00040694778030495656,-0.00132619824404364,-0.0010090267008887857
37,39,0.9980009999999996,0.8624972056137915,0.0005935059194962877,0.0006888138484959095,0.8616347084081778,0.0,-0.0008738662293801706,-4.257050748911129e-06,3.1436483424291887e-06,3.814086367984134e-06,1.7346006285424583e-05,0.09945007670962398,-0.0035568524698150745,-0.005436788754938721,0.00040694778030495656,0.00039237394867989723,0.0004452998550128658
38,30,0.9980010000000007,1.7459039860852643,0.001329193870233913,0.0007620833706966305,1.7441580820991793,0.0,0.0010743569789398687,-4.035386477376487e-05,-4.218332046290149e-05,-3.727857849071097e-06,-1.451534608006242e-05,-0.09950127771742562,0.0032714099451613965,0.004276553314006558,-0.0003751577674578992,-0.0009593242852343934,-0.0009200289454288536
38,31,0.9980010000000005,1.3305629431456254,0.0009163750267311763,0.0006894016730103927,1.3292323802024801,0.0,0.0010743569789397334,-4.035386477376537e-05,-4.2183320462901284e-05,-3.727857849071044e-06,-1.4515346080062424e-05,-0.09950127771742562,0.003271409945161496,0.004276553314006558,-0.0003751577674578992,-0.0008287202003766981,-0.00039110870497109803
38,32,0.9980010000000002,1.3569346136871498,0.0009390512009703084,0.0006927313834292032,1.3555776790734628,0.0,0.0010743569789398374,-4.035386477376496e-05,-4.2183320462901454e-05,-3.727857849071087e-06,-1.4515346080062424e-05,-0.09950127771742562,0.0032714099451614208,0.004276553314006558,-0.0003751577674578992,-0.0008419508786127576,-0.00041585559518537697
38,33,0.9980009999999999,1.4129014208738437,0.001074635792049435,0.0007613492970285838,1.4114885194529696,0.0,0.0010743569789400341,-4.0353864773764226e-05,-4.218332046290175e-05,-3.727857849071169e-06,-1.4515346080062417e-05,-0.09950127771742559,0.0032714099451612837,0.004276553314006558,-0.0003751577674578991,-0.0009781518628021546,-0.0004450404687782801
38,34,0.9980010000000002,1.2892565373817573,0.0010459114287648711,0.0008120636636663506,1.2879672808443754,0.0,0.0010743569789400259,-4.0353864773764294e-05,-4.218332046290175e-05,-3.727857849071165e-06,-1.4515346080062414e-05,-0.0995012777174256,0.0032714099451612885,0.004276553314006558,-0.00037515776745789914,-0.0009849387957340573,-0.0003518895927402785
38,35,0.9980010000000004,1.5458738352003818,0.001153371735865973,0.000746843782357211,1.5443279613651817,0.0,0.0010743569789401304,-4.03538647737639e-05,-4.2183320462901914e-05,-3.727857849071207e-06,-1.4515346080062414e-05,-0.09950127771742562,0.00327140994516121,0.004276553314006558,-0.0003751577674578992,-0.0010338069776379558,-0.0005113799899111841
38,36,0.9980010000000005,1.3171844750652941,0.0011169090942883435,0.000848800712864712,1.315867290590229,0.0,0.0010743569789401109,-4.035386477376399e-05,-4.2183320462901894e-05,-3.727857849071202e-06,-1.4515346080062414e-05,-0.09950127771742562,0.003271409945161225,0.004276553314006558,-0.00037515776745789925,-0.0010046454963337948,-0.0004880300724343026
38,37,0.9980010000000002,2.1688276976182905,0.0016130309097224596,0.0007444784834917355,2.1666588699206724,0.0,0.0010743569789398095,-4.0353864773765066e-05,-4.218332046290141e-05,-3.7278578490710756e-06,-1.4515346080062424e-05,-0.09950127771742562,0.0032714099451614438,0.004276553314006558,-0.0003751577674578992,-0.0011831993113875239,-0.0010963156959800198
38,38,0.9980010000000002,6.396727876859291,0.005624817988690522,0.0008802075913681236,6.390331148982434,0.0,-0.0010743569789396928,4.03538647737655e-05,4.2183320462901216e-05,3.727857849071025e-06,1.4515346080062429e-05,0.0995012777174256,-0.0032714099451615244,-0.004276553314006558,0.0003751577674578991,0.0016869631141482478,0.005365886027246546
38,39,0.9980010000000001,0.7092315736037894,0.0004880400011591473,0.0006888138484959095,0.7085223420301856,0.0,0.001074356978939793,-4.0353864773765114e-05,-4.218332046290139e-05,-3.7278578490710697e-06,-1.4515346080062422e-05,-0.0995012777174256,0.0032714099451614516,0.004276553314006558,-0.0003751577674578992,-0.0004007834252094844,-0.00027848822023341323
39,30,0.9980009999999998,0.748773738554197,0.0005700573865519336,0.0007620833706966305,0.748024964815643,0.0,0.0013143350622813058,-4.177108745917154e-06,7.130244114799132e-05,-4.381942654572254e-06,-1.945496138006978e-05,-0.0993844791894476,0.003276254298155134,0.005567315797266812,-0.00044946887427245317,-0.0004468366513169152,-0.0003539808342301969
39,31,0.9980009999999999,0.7861504674738987,0.0005414314740668937,0.0006894016730103927,0.7853643170064248,0.0,0.0013143350622811048,-4.177108745918151e-06,7.130244114799166e-05,-4.381942654572117e-06,-1.945496138006979e-05,-0.0993844791894476,0.0032762542981553166,0.005567315797266812,-0.00044946887427245306,-0.0004418000458695673,-0.00031298683771030625
39,32,0.9980009999999994,0.7276519317820583,0.0005035632620289589,0.0006927313834292032,0.7269242798502759,0.0,0.001314335062281228,-4.177108745917514e-06,7.130244114799146e-05,-4.381942654572199e-06,-1.9454961380069778e-05,-0.09938447918944758,0.0032762542981552034,0.005567315797266811,-0.00044946887427245306,-0.00042387629392649724,-0.00027185445795937157
39,33,0.9980010000000004,0.49762959600177253,0.00037849107315347124,0.0007613492970285838,0.4971319664057709,0.0,0.0013143350622813728,-4.177108745916816e-06,7.130244114799125e-05,-4.381942654572292e-06,-1.9454961380069778e-05,-0.09938447918944764,0.0032762542981550854,0.005567315797266814,-0.00044946887427245317,-0.0003696934434731058,-8.113106870899596e-05
39,34,0.9980010000000001,0.45408136785872283,0.0003683742362067964,0.0008120636636663506,0.45362728649086415,0.0,0.0013143350622814218,-4.177108745916599e-06,7.130244114799116e-05,-4.381942654572318e-06,-1.9454961380069775e-05,-0.09938447918944761,0.0032762542981550485,0.005567315797266812,-0.000449468874272453,-0.0003651609236184962,-4.854974524163233e-05
39,35,0.9980010000000004,0.5444630182371116,0.0004062221910739339,0.000746843782357211,0.5439185552188747,0.0,0.0013143350622814506,-4.177108745916448e-06,7.13024411479911e-05,-4.381942654572337e-06,-1.9454961380069778e-05,-0.09938447918944762,0.0032762542981550277,0.005567315797266815,-0.0004494688742724532,-0.00039375340431126014,-9.987354561745044e-05
39,36,0.9980009999999998,0.463917700486958,0.00039337990120900403,0.000848800712864712,0.4634537827864711,0.0,0.0013143350622814348,-4.177108745916528e-06,7.130244114799112e-05,-4.381942654572328e-06,-1.9454961380069775e-05,-0.0993844791894476,0.0032762542981550355,0.005567315797266811,-0.00044946887427245317,-0.0003819882430204731,-9.398259875816235e-05
39,37,0.9980009999999996,0.705108770355389,0.0005244133697428514,0.0007444784834917355,0.7044036615850335,0.0,0.0013143350622812895,-4.17710874591721e-06,7.130244114799136e-05,-4.381942654572238e-06,-1.945496138006978e-05,-0.0993844791894476,0.003276254298155155,0.005567315797266813,-0.00044946887427245306,-0.00042263191147790024,-0.0003104700464869177
39,38,0.9980009999999992,0.5066334026116154,0.0004454966244523873,0.0008802075913681236,0.5061267692090037,0.0,0.0013143350622813008,-4.1771087459171885e-06,7.130244114799135e-05,-4.38194265457224e-06,-1.9454961380069778e-05,-0.09938447918944758,0.003276254298155151,0.005567315797266811,-0.00044946887427245306,-0.00042619345825053924,-0.00012971653149432128
39,39,0.9980009999999999,1.8880156683434377,0.001299190847193688,0.0006888138484959095,1.8861276526750945,0.0,-0.0013143350622812132,4.177108745917621e-06,-7.13024411479915e-05,4.381942654572187e-06,1.9454961380069788e-05,0.09938447918944761,-0.003276254298155222,-0.005567315797266812,0.00044946887427245306,0.0005060221279878189,0.0011965945275733683
